/*--------------------------------*- C++ -*----------------------------------*\
| =========                 |                                                 |
| \\      /  F ield         | OpenFOAM: The Open Source CFD Toolbox           |
|  \\    /   O peration     | Version:  2212                                  |
|   \\  /    A nd           | Website:  www.openfoam.com                      |
|    \\/     M anipulation  |                                                 |
\*---------------------------------------------------------------------------*/
FoamFile
{
    version     2.0;
    format      ascii;
    arch        "LSB;label=32;scalar=64";
    class       extendedFeatureEdgeMesh;
    location    "constant/extendedFeatureEdgeMesh";
    object      baffle1.extendedFeatureEdgeMesh;
}
// * * * * * * * * * * * * * * * * * * * * * * * * * * * * * * * * * * * * * //

// points

198
(
(0.17 -0.2135 -0)
(0.17 -0.1235 -0)
(0.185 -0.2135 -0)
(0.185 -0.1235 -0)
(0.17 -0.0635 -0)
(0.17 0 0)
(0.185 -0.0635 -0)
(0.185 0 0)
(0.17 -0.6635 -0)
(0.17 -0.5735 -0)
(0.185 -0.6635 -0)
(0.185 -0.5735 -0)
(0.17 -0.5135 -0)
(0.17 -0.4235 -0)
(0.185 -0.5135 -0)
(0.185 -0.4235 -0)
(0.185 -0.2735 -0)
(0.185 -0.3635 -0)
(0.17 -0.2735 -0)
(0.17 -0.3635 -0)
(0.185 -0.787 -0)
(0.185 -0.787 0.065)
(0.17 -0.787 -0)
(0.17 -0.787 0.065)
(0.185 -0.7235 -0)
(0.17 -0.7235 -0)
(0.185 -0 0.065)
(0.17 -0 0.065)
(0.185 -0.403761 0.028191)
(0.185 -0.398709 0.029544)
(0.185 -0.670519 0.019284)
(0.185 -0.667519 0.015)
(0.185 -0.383239 0.028191)
(0.185 -0.3785 0.025981)
(0.185 -0.374216 0.022981)
(0.185 -0.370519 0.019284)
(0.185 -0.367519 0.015)
(0.185 -0.688291 0.029544)
(0.185 -0.683239 0.028191)
(0.185 -0.5585 0.025981)
(0.185 -0.553761 0.028191)
(0.185 -0.363956 0.005209)
(0.185 -0.273044 0.005209)
(0.185 -0.365309 0.010261)
(0.185 -0.271691 0.010261)
(0.185 -0.269481 0.015)
(0.185 -0.719481 0.015)
(0.185 -0.716481 0.019284)
(0.185 -0.721691 0.010261)
(0.185 -0.712784 0.022981)
(0.185 -0.7085 0.025981)
(0.185 -0.703761 0.028191)
(0.185 -0.698709 0.029544)
(0.185 -0.6935 0.03)
(0.185 -0.6785 0.025981)
(0.185 -0.674216 0.022981)
(0.185 -0.665309 0.010261)
(0.185 -0.663956 0.005209)
(0.185 -0.569481 0.015)
(0.185 -0.566481 0.019284)
(0.185 -0.571691 0.010261)
(0.185 -0.723044 0.005209)
(0.185 -0.573044 0.005209)
(0.185 -0.562784 0.022981)
(0.185 -0.548709 0.029544)
(0.185 -0.5435 0.03)
(0.185 -0.538291 0.029544)
(0.185 -0.533239 0.028191)
(0.185 -0.5285 0.025981)
(0.185 -0.524216 0.022981)
(0.185 -0.520519 0.019284)
(0.185 -0.423044 0.005209)
(0.185 -0.421691 0.010261)
(0.185 -0.419481 0.015)
(0.185 -0.416481 0.019284)
(0.185 -0.233239 0.028191)
(0.185 -0.2285 0.025981)
(0.185 -0.224216 0.022981)
(0.185 -0.220519 0.019284)
(0.185 -0.217519 0.015)
(0.185 -0.121691 0.010261)
(0.185 -0.119481 0.015)
(0.185 -0.116481 0.019284)
(0.185 -0.083239 0.028191)
(0.185 -0.0785 0.025981)
(0.185 -0.074216 0.022981)
(0.185 -0.070519 0.019284)
(0.185 -0.067519 0.015)
(0.185 -0.065309 0.010261)
(0.185 -0.063956 0.005209)
(0.185 -0.213956 0.005209)
(0.185 -0.517519 0.015)
(0.185 -0.3935 0.03)
(0.185 -0.38829 0.029544)
(0.185 -0.513956 0.005209)
(0.185 -0.515309 0.010261)
(0.185 -0.412784 0.022981)
(0.185 -0.4085 0.025981)
(0.185 -0.215309 0.010261)
(0.185 -0.123044 0.005209)
(0.185 -0.266481 0.019284)
(0.185 -0.262784 0.022981)
(0.185 -0.2585 0.025981)
(0.185 -0.098709 0.029544)
(0.185 -0.0935 0.03)
(0.185 -0.088291 0.029544)
(0.185 -0.238291 0.029544)
(0.185 -0.112784 0.022981)
(0.185 -0.2435 0.03)
(0.185 -0.1085 0.025981)
(0.185 -0.103761 0.028191)
(0.185 -0.248709 0.029544)
(0.185 -0.253761 0.028191)
(0.17 -0.217519 0.015)
(0.17 -0.220519 0.019284)
(0.17 -0.2585 0.025981)
(0.17 -0.262784 0.022981)
(0.17 -0.266481 0.019284)
(0.17 -0.269481 0.015)
(0.17 -0.119481 0.015)
(0.17 -0.121691 0.010261)
(0.17 -0.367519 0.015)
(0.17 -0.370519 0.019284)
(0.17 -0.712784 0.022981)
(0.17 -0.716481 0.019284)
(0.17 -0.273044 0.005209)
(0.17 -0.363956 0.005209)
(0.17 -0.271691 0.010261)
(0.17 -0.067519 0.015)
(0.17 -0.070519 0.019284)
(0.17 -0.065309 0.010261)
(0.17 -0.2285 0.025981)
(0.17 -0.233239 0.028191)
(0.17 -0.569481 0.015)
(0.17 -0.571691 0.010261)
(0.17 -0.566481 0.019284)
(0.17 -0.667519 0.015)
(0.17 -0.670519 0.019284)
(0.17 -0.674216 0.022981)
(0.17 -0.6785 0.025981)
(0.17 -0.063956 0.005209)
(0.17 -0.074216 0.022981)
(0.17 -0.0785 0.025981)
(0.17 -0.083239 0.028191)
(0.17 -0.116481 0.019284)
(0.17 -0.224216 0.022981)
(0.17 -0.374216 0.022981)
(0.17 -0.3785 0.025981)
(0.17 -0.383239 0.028191)
(0.17 -0.524216 0.022981)
(0.17 -0.5285 0.025981)
(0.17 -0.533239 0.028191)
(0.17 -0.538291 0.029544)
(0.17 -0.5435 0.03)
(0.17 -0.548709 0.029544)
(0.17 -0.553761 0.028191)
(0.17 -0.103761 0.028191)
(0.17 -0.1085 0.025981)
(0.17 -0.5585 0.025981)
(0.17 -0.562784 0.022981)
(0.17 -0.573044 0.005209)
(0.17 -0.663956 0.005209)
(0.17 -0.665309 0.010261)
(0.17 -0.683239 0.028191)
(0.17 -0.688291 0.029544)
(0.17 -0.6935 0.03)
(0.17 -0.698709 0.029544)
(0.17 -0.703761 0.028191)
(0.17 -0.7085 0.025981)
(0.17 -0.719481 0.015)
(0.17 -0.721691 0.010261)
(0.17 -0.723044 0.005209)
(0.17 -0.238291 0.029544)
(0.17 -0.2435 0.03)
(0.17 -0.112784 0.022981)
(0.17 -0.123044 0.005209)
(0.17 -0.213956 0.005209)
(0.17 -0.215309 0.010261)
(0.17 -0.398709 0.029544)
(0.17 -0.403761 0.028191)
(0.17 -0.4085 0.025981)
(0.17 -0.419481 0.015)
(0.17 -0.421691 0.010261)
(0.17 -0.423044 0.005209)
(0.17 -0.515309 0.010261)
(0.17 -0.517519 0.015)
(0.17 -0.365309 0.010261)
(0.17 -0.248709 0.029544)
(0.17 -0.253761 0.028191)
(0.17 -0.412784 0.022981)
(0.17 -0.416481 0.019284)
(0.17 -0.38829 0.029544)
(0.17 -0.3935 0.03)
(0.17 -0.520519 0.019284)
(0.17 -0.088291 0.029544)
(0.17 -0.0935 0.03)
(0.17 -0.098709 0.029544)
(0.17 -0.513956 0.005209)
)

// edges

212
(
(0 1)
(2 0)
(3 2)
(1 3)
(4 5)
(6 4)
(5 7)
(7 6)
(8 9)
(10 8)
(11 10)
(9 11)
(12 13)
(14 12)
(15 14)
(13 15)
(16 17)
(18 16)
(19 18)
(17 19)
(22 20)
(20 21)
(21 23)
(23 22)
(24 20)
(25 24)
(22 25)
(27 26)
(26 7)
(5 27)
(21 26)
(27 23)
(28 29)
(30 31)
(32 33)
(33 34)
(34 35)
(35 36)
(37 38)
(39 40)
(41 17)
(16 42)
(43 41)
(42 44)
(36 43)
(44 45)
(46 47)
(48 46)
(47 49)
(49 50)
(50 51)
(51 52)
(52 53)
(53 37)
(38 54)
(54 55)
(55 30)
(31 56)
(56 57)
(58 59)
(60 58)
(61 48)
(24 61)
(57 10)
(11 62)
(62 60)
(59 63)
(63 39)
(40 64)
(64 65)
(65 66)
(66 67)
(67 68)
(68 69)
(69 70)
(71 72)
(72 73)
(73 74)
(75 76)
(76 77)
(77 78)
(78 79)
(80 81)
(81 82)
(83 84)
(84 85)
(85 86)
(86 87)
(87 88)
(88 89)
(89 6)
(90 2)
(70 91)
(29 92)
(92 93)
(93 32)
(94 14)
(15 71)
(95 94)
(91 95)
(74 96)
(96 97)
(97 28)
(79 98)
(98 90)
(99 80)
(3 99)
(45 100)
(100 101)
(101 102)
(103 104)
(104 105)
(105 83)
(106 75)
(82 107)
(108 106)
(107 109)
(109 110)
(110 103)
(111 108)
(112 111)
(102 112)
(113 114)
(115 116)
(116 117)
(117 118)
(119 120)
(121 122)
(123 124)
(125 18)
(19 126)
(127 125)
(118 127)
(128 129)
(130 128)
(131 132)
(133 134)
(135 133)
(136 137)
(137 138)
(138 139)
(140 130)
(4 140)
(129 141)
(141 142)
(142 143)
(144 119)
(114 145)
(145 131)
(122 146)
(146 147)
(147 148)
(149 150)
(150 151)
(151 152)
(152 153)
(153 154)
(154 155)
(156 157)
(155 158)
(158 159)
(159 135)
(160 9)
(8 161)
(134 160)
(161 162)
(162 136)
(139 163)
(163 164)
(164 165)
(165 166)
(166 167)
(167 168)
(168 123)
(124 169)
(169 170)
(170 171)
(171 25)
(132 172)
(172 173)
(174 144)
(157 174)
(175 1)
(0 176)
(120 175)
(176 177)
(177 113)
(178 179)
(179 180)
(181 182)
(182 183)
(184 185)
(126 186)
(187 188)
(188 115)
(180 189)
(189 190)
(190 181)
(148 191)
(191 192)
(192 178)
(193 149)
(185 193)
(143 194)
(194 195)
(195 196)
(183 13)
(12 197)
(197 184)
(186 121)
(173 187)
(196 156)
)

// concaveStart mixedStart nonFeatureStart
28 28 28
// internalStart flatStart openStart multipleStart
212 212 212 212
// normals

384
(
(0 0 -1)
(-1 0 0)
(-0 -0.99619 -0.0872083)
(0 0 -1)
(1 0 0)
(0 0.99619 -0.0872069)
(0 0 -1)
(-1 0 0)
(-0 -0.99619 -0.0872069)
(0 0 -1)
(0 1 0)
(1 0 0)
(0 0 -1)
(-1 0 0)
(-0 -0.996191 -0.0872026)
(0 0 -1)
(1 0 -0)
(0 0.996191 -0.0872026)
(0 0 -1)
(-1 0 0)
(-0 -0.99619 -0.087214)
(0 0 -1)
(1 0 -0)
(0 0.99619 -0.0872083)
(-0 -0 -1)
(1 0 -0)
(0 0.99619 -0.0872083)
(0 0 -1)
(-1 0 0)
(-0 -0.99619 -0.0872083)
(0 -1 0)
(0 0 -1)
(1 0 0)
(0 -1 0)
(0 -0 1)
(-1 0 0)
(-0 -0 -1)
(1 0 0)
(0 0.99619 -0.087214)
(-1 0 0)
(0 1 0)
(0 0 1)
(1 0 0)
(-1 0 0)
(1 -0 0)
(-1 -0 0)
(1 0 -0)
(0 0.258698 -0.965958)
(1 -0 0)
(-0 -0.819122 -0.573619)
(1 -0 0)
(-0 -0.422646 -0.906295)
(1 -0 0)
(-0 -0.573614 -0.819126)
(1 0 0)
(-0 -0.707109 -0.707105)
(1 0 0)
(-0 -0.819122 -0.573619)
(1 0 0)
(-0 -0.258696 -0.965959)
(1 0 -0)
(0 0.422646 -0.906295)
(-0 -0.99619 -0.0872083)
(1 -0 0)
(1 0 -0)
(-0 -0.965959 -0.258697)
(1 -0 0)
(0 0.965959 -0.258697)
(1 0 -0)
(-0 -0.906296 -0.422643)
(1 -0 0)
(0 0.906296 -0.422643)
(1 0 0)
(0 0.819122 -0.573619)
(1 0 0)
(0 0.906294 -0.422648)
(1 0 -0)
(0 0.707109 -0.707105)
(1 0 0)
(0 0.57362 -0.819122)
(1 0 0)
(0 0.422641 -0.906297)
(1 0 -0)
(0 0.258699 -0.965958)
(1 0 0)
(0 0.0872068 -0.99619)
(1 0 0)
(-0 -0.0872077 -0.99619)
(1 0 0)
(-0 -0.422646 -0.906295)
(1 0 0)
(-0 -0.573614 -0.819126)
(1 0 0)
(-0 -0.707109 -0.707105)
(1 -0 0)
(-0 -0.906298 -0.422639)
(1 0 0)
(-0 -0.965957 -0.258702)
(1 0 0)
(0 0.819122 -0.573619)
(1 0 0)
(0 0.906298 -0.422639)
(1 0 0)
(0 0.96596 -0.258692)
(-0 -0.996191 -0.0872026)
(1 -0 0)
(1 0 0)
(0 0.965957 -0.258702)
(1 0 0)
(0 0.707109 -0.707105)
(1 0 0)
(0 0.573614 -0.819126)
(1 0 -0)
(0 0.258696 -0.965959)
(1 0 0)
(0 0.0872077 -0.99619)
(1 0 0)
(-0 -0.0872068 -0.99619)
(1 0 0)
(-0 -0.258699 -0.965958)
(1 -0 0)
(-0 -0.422646 -0.906295)
(1 0 0)
(-0 -0.573614 -0.819126)
(1 0 0)
(-0 -0.707109 -0.707105)
(1 0 -0)
(0 0.965959 -0.258697)
(1 -0 0)
(0 0.906296 -0.422643)
(1 0 0)
(0 0.819122 -0.573619)
(1 0 0)
(-0 -0.422645 -0.906295)
(1 0 0)
(-0 -0.573617 -0.819124)
(1 0 0)
(-0 -0.707107 -0.707106)
(1 -0 -0)
(-0 -0.819124 -0.573617)
(1 0 0)
(0 0.906295 -0.422646)
(1 -0 0)
(0 0.819124 -0.573616)
(1 -0 0)
(-0 -0.422645 -0.906295)
(1 0 0)
(-0 -0.573616 -0.819124)
(1 0 0)
(-0 -0.707107 -0.707107)
(1 -0 0)
(-0 -0.819124 -0.573616)
(1 0 0)
(-0 -0.906296 -0.422644)
(1 0 0)
(-0 -0.965958 -0.258698)
(-0 -0.99619 -0.0872069)
(-0 -0.99619 -0.0872083)
(1 0 -0)
(-0 -0.819122 -0.573619)
(1 0 0)
(0 0.0872073 -0.99619)
(1 0 0)
(-0 -0.0871904 -0.996192)
(1 0 0)
(-0 -0.258746 -0.965945)
(-0 -0.99619 -0.087214)
(1 -0 0)
(1 0 -0)
(-0 -0.96596 -0.258692)
(1 -0 -0)
(-0 -0.906294 -0.422648)
(1 0 -0)
(0 0.707109 -0.707105)
(1 0 0)
(0 0.573614 -0.819126)
(1 0 0)
(0 0.422646 -0.906295)
(1 0 0)
(-0 -0.906295 -0.422646)
(1 0 0)
(-0 -0.965959 -0.258697)
(1 0 0)
(0 0.965959 -0.258697)
(1 0 0)
(1 0 -0)
(0 0.819125 -0.573615)
(1 0 0)
(0 0.707106 -0.707108)
(1 0 0)
(0 0.573617 -0.819124)
(1 0 0)
(0 0.0872073 -0.99619)
(1 0 0)
(-0 -0.0872071 -0.99619)
(1 0 0)
(-0 -0.258698 -0.965958)
(1 -0 -0)
(-0 -0.258698 -0.965958)
(1 0 0)
(0 0.707107 -0.707107)
(1 -0 -0)
(-0 -0.0872073 -0.99619)
(1 0 0)
(0 0.573616 -0.819124)
(1 0 0)
(0 0.422645 -0.906295)
(1 0 -0)
(0 0.258698 -0.965958)
(1 0 -0)
(0 0.0872073 -0.99619)
(1 0 0)
(0 0.258698 -0.965958)
(1 0 0)
(0 0.422644 -0.906296)
(-1 0 0)
(-0 -0.819124 -0.573617)
(-1 0 0)
(0 0.573617 -0.819124)
(-1 0 0)
(0 0.707106 -0.707108)
(-1 0 0)
(0 0.819125 -0.573615)
(-1 0 0)
(0 0.906295 -0.422646)
(-1 0 0)
(-0 -0.819122 -0.573619)
(-1 -0 0)
(0 0.707109 -0.707105)
(0 0.99619 -0.0872083)
(-1 -0 0)
(-1 0 0)
(0 0.965959 -0.258697)
(-1 -0 0)
(0 0.906296 -0.422643)
(-1 0 0)
(-0 -0.819124 -0.573616)
(-1 0 0)
(-0 -0.906296 -0.422644)
(-1 0 0)
(-0 -0.422645 -0.906295)
(-1 0 0)
(0 0.906298 -0.422639)
(-1 0 0)
(0 0.819122 -0.573619)
(-1 0 0)
(-0 -0.819122 -0.573619)
(-1 0 0)
(-0 -0.707109 -0.707105)
(-1 0 0)
(-0 -0.573614 -0.819126)
(-1 0 0)
(-0 -0.965958 -0.258698)
(-1 0 0)
(-0 -0.707107 -0.707107)
(-1 0 0)
(-0 -0.573616 -0.819124)
(-1 0 0)
(-0 -0.422645 -0.906295)
(-1 0 0)
(0 0.819124 -0.573616)
(-1 0 0)
(-0 -0.707107 -0.707106)
(-1 0 0)
(-0 -0.573617 -0.819124)
(-1 0 0)
(-0 -0.707109 -0.707105)
(-1 0 0)
(-0 -0.573614 -0.819126)
(-1 0 0)
(-0 -0.422646 -0.906295)
(-1 0 0)
(-0 -0.573614 -0.819126)
(-1 0 0)
(-0 -0.422646 -0.906295)
(-1 0 0)
(-0 -0.258699 -0.965958)
(-1 0 0)
(-0 -0.0872068 -0.99619)
(-1 0 0)
(0 0.0872077 -0.99619)
(-1 0 0)
(0 0.258696 -0.965959)
(-1 -0 0)
(0 0.422645 -0.906295)
(-1 -0 0)
(0 0.422646 -0.906295)
(-1 0 0)
(0 0.573614 -0.819126)
(-1 0 0)
(0 0.707109 -0.707105)
(0 0.996191 -0.0872026)
(-1 -0 0)
(-1 0 0)
(0 0.965957 -0.258702)
(-1 -0 0)
(-0 -0.965957 -0.258702)
(-1 0 0)
(-0 -0.906298 -0.422639)
(-1 0 0)
(-0 -0.422646 -0.906295)
(-1 0 0)
(-0 -0.258696 -0.965959)
(-1 0 0)
(-0 -0.0872077 -0.99619)
(-1 0 0)
(0 0.0872068 -0.99619)
(-1 -0 0)
(0 0.258699 -0.965958)
(-1 0 0)
(0 0.422641 -0.906297)
(-1 0 0)
(0 0.57362 -0.819122)
(-1 -0 0)
(0 0.819122 -0.573619)
(-1 0 0)
(0 0.906294 -0.422648)
(-1 0 0)
(0 0.96596 -0.258692)
(0 0.99619 -0.087214)
(-1 0 0)
(-0 -0.258698 -0.965958)
(-1 0 0)
(-0 -0.0872073 -0.99619)
(-1 0 0)
(0 0.707107 -0.707107)
(-1 0 0)
(0 0.573616 -0.819124)
(0 0.99619 -0.0872069)
(-1 -0 0)
(-1 0 0)
(0 0.965959 -0.258697)
(-1 -0 0)
(-0 -0.965959 -0.258697)
(-1 0 0)
(-0 -0.906295 -0.422646)
(-1 0 0)
(0 0.258698 -0.965958)
(-1 0 0)
(0 0.422646 -0.906295)
(-1 -0 0)
(0 0.906296 -0.422643)
(-1 0 0)
(0 0.965959 -0.258697)
(-1 0 0)
(-0 -0.906294 -0.422648)
(-1 0 0)
(-0 -0.965959 -0.258697)
(-1 0 0)
(0 0.258698 -0.965958)
(-1 0 0)
(0 0.422644 -0.906296)
(-1 0 0)
(0 0.573614 -0.819126)
(-1 0 0)
(0 0.707109 -0.707105)
(-1 0 0)
(0 0.819122 -0.573619)
(-1 0 0)
(-0 -0.258746 -0.965945)
(-1 0 0)
(-0 -0.0871904 -0.996192)
(-1 0 0)
(0 0.0872073 -0.99619)
(-1 0 0)
(-0 -0.707109 -0.707105)
(-1 0 0)
(-0 -0.819122 -0.573619)
(-1 0 0)
(-0 -0.258698 -0.965958)
(-1 0 0)
(-0 -0.0872071 -0.99619)
(-1 0 0)
(0 0.0872073 -0.99619)
(0 0.99619 -0.0872083)
(-1 -0 0)
(-1 0 0)
(-0 -0.96596 -0.258692)
(-1 0 0)
(-0 -0.906296 -0.422643)
(-1 0 0)
(0 0.0872073 -0.99619)
(-1 0 0)
(0 0.258698 -0.965958)
)

// normal volume types

384
(
0
0
0
0
0
0
0
0
0
0
0
0
0
0
0
0
0
0
0
0
0
0
0
0
0
0
0
0
0
0
0
0
0
0
0
0
0
0
0
0
0
0
0
0
0
0
0
0
0
0
0
0
0
0
0
0
0
0
0
0
0
0
0
0
0
0
0
0
0
0
0
0
0
0
0
0
0
0
0
0
0
0
0
0
0
0
0
0
0
0
0
0
0
0
0
0
0
0
0
0
0
0
0
0
0
0
0
0
0
0
0
0
0
0
0
0
0
0
0
0
0
0
0
0
0
0
0
0
0
0
0
0
0
0
0
0
0
0
0
0
0
0
0
0
0
0
0
0
0
0
0
0
0
0
0
0
0
0
0
0
0
0
0
0
0
0
0
0
0
0
0
0
0
0
0
0
0
0
0
0
0
0
0
0
0
0
0
0
0
0
0
0
0
0
0
0
0
0
0
0
0
0
0
0
0
0
0
0
0
0
0
0
0
0
0
0
0
0
0
0
0
0
0
0
0
0
0
0
0
0
0
0
0
0
0
0
0
0
0
0
0
0
0
0
0
0
0
0
0
0
0
0
0
0
0
0
0
0
0
0
0
0
0
0
0
0
0
0
0
0
0
0
0
0
0
0
0
0
0
0
0
0
0
0
0
0
0
0
0
0
0
0
0
0
0
0
0
0
0
0
0
0
0
0
0
0
0
0
0
0
0
0
0
0
0
0
0
0
0
0
0
0
0
0
0
0
0
0
0
0
0
0
0
0
0
0
0
0
0
0
0
0
0
0
0
0
0
0
0
0
0
0
0
0
0
0
0
0
0
0
0
0
0
0
0
0
0
0
0
0
0
0
0
0
0
0
0
0
0
0
0
0
0
0
)

// normalDirections

212
(
2(1 -1)
2(1 -1)
2(1 -1)
2(1 -1)
2(1 -1)
2(1 -1)
2(1 -1)
2(1 -1)
2(1 -1)
2(1 -1)
2(1 -1)
2(1 -1)
2(1 -1)
2(1 -1)
2(1 -1)
2(1 -1)
2(1 -1)
2(1 -1)
2(1 -1)
2(1 -1)
2(1 -1)
2(1 -1)
2(1 -1)
2(1 -1)
2(1 -1)
2(1 -1)
2(1 -1)
2(1 -1)
2(1 -1)
2(1 -1)
2(1 -1)
2(1 -1)
2(1 -1)
2(1 -1)
2(1 -1)
2(1 -1)
2(1 -1)
2(1 -1)
2(1 -1)
2(1 -1)
2(1 -1)
2(1 -1)
2(1 -1)
2(1 -1)
2(1 -1)
2(1 -1)
2(1 -1)
2(1 -1)
2(1 -1)
2(1 -1)
2(1 -1)
2(1 -1)
2(1 -1)
2(1 -1)
2(1 -1)
2(1 -1)
2(1 -1)
2(1 -1)
2(1 -1)
2(1 -1)
2(1 -1)
2(1 -1)
2(1 -1)
2(1 -1)
2(1 -1)
2(1 -1)
2(1 -1)
2(1 -1)
2(1 -1)
2(1 -1)
2(1 -1)
2(1 -1)
2(1 -1)
2(1 -1)
2(1 -1)
2(1 -1)
2(1 -1)
2(1 -1)
2(1 -1)
2(1 -1)
2(1 -1)
2(1 -1)
2(1 -1)
2(1 -1)
2(1 -1)
2(1 -1)
2(1 -1)
2(1 -1)
2(1 -1)
2(1 -1)
2(1 -1)
2(1 -1)
2(1 -1)
2(1 -1)
2(1 -1)
2(1 -1)
2(1 -1)
2(1 -1)
2(1 -1)
2(1 -1)
2(1 -1)
2(1 -1)
2(1 -1)
2(1 -1)
2(1 -1)
2(1 -1)
2(1 -1)
2(1 -1)
2(1 -1)
2(1 -1)
2(1 -1)
2(1 -1)
2(1 -1)
2(1 -1)
2(1 -1)
2(1 -1)
2(1 -1)
2(1 -1)
2(1 -1)
2(1 -1)
2(1 -1)
2(1 -1)
2(1 -1)
2(1 -1)
2(1 -1)
2(1 -1)
2(1 -1)
2(1 -1)
2(1 -1)
2(1 -1)
2(1 -1)
2(1 -1)
2(1 -1)
2(1 -1)
2(1 -1)
2(1 -1)
2(1 -1)
2(1 -1)
2(1 -1)
2(1 -1)
2(1 -1)
2(1 -1)
2(1 -1)
2(1 -1)
2(1 -1)
2(1 -1)
2(1 -1)
2(1 -1)
2(1 -1)
2(1 -1)
2(1 -1)
2(1 -1)
2(1 -1)
2(1 -1)
2(1 -1)
2(1 -1)
2(1 -1)
2(1 -1)
2(1 -1)
2(1 -1)
2(1 -1)
2(1 -1)
2(1 -1)
2(1 -1)
2(1 -1)
2(1 -1)
2(1 -1)
2(1 -1)
2(1 -1)
2(1 -1)
2(1 -1)
2(1 -1)
2(1 -1)
2(1 -1)
2(1 -1)
2(1 -1)
2(1 -1)
2(1 -1)
2(1 -1)
2(1 -1)
2(1 -1)
2(1 -1)
2(1 -1)
2(1 -1)
2(1 -1)
2(1 -1)
2(1 -1)
2(1 -1)
2(1 -1)
2(1 -1)
2(1 -1)
2(1 -1)
2(1 -1)
2(1 -1)
2(1 -1)
2(1 -1)
2(1 -1)
2(1 -1)
2(1 -1)
2(1 -1)
2(1 -1)
2(1 -1)
2(1 -1)
2(1 -1)
2(1 -1)
2(1 -1)
2(1 -1)
2(1 -1)
2(1 -1)
2(1 -1)
2(1 -1)
2(1 -1)
)

// edgeNormals

212
(
2(0 1)
2(0 2)
2(3 4)
2(3 5)
2(6 7)
2(6 8)
2(9 10)
2(9 11)
2(12 13)
2(12 14)
2(15 16)
2(15 17)
2(18 19)
2(18 20)
2(21 22)
2(21 23)
2(24 25)
2(24 26)
2(27 28)
2(27 29)
2(30 31)
2(30 32)
2(33 34)
2(33 35)
2(36 37)
2(36 38)
2(31 39)
2(40 41)
2(40 42)
2(10 43)
2(34 44)
2(41 45)
2(46 47)
2(48 49)
2(50 51)
2(52 53)
2(54 55)
2(56 57)
2(58 59)
2(60 61)
2(25 62)
2(63 26)
2(64 65)
2(66 67)
2(68 69)
2(70 71)
2(72 73)
2(74 75)
2(76 77)
2(78 79)
2(80 81)
2(82 83)
2(84 85)
2(86 87)
2(88 89)
2(90 91)
2(92 93)
2(94 95)
2(96 97)
2(98 99)
2(100 101)
2(102 103)
2(37 38)
2(16 104)
2(105 17)
2(106 107)
2(108 109)
2(110 111)
2(112 113)
2(114 115)
2(116 117)
2(118 119)
2(120 121)
2(122 123)
2(124 125)
2(126 127)
2(128 129)
2(130 131)
2(132 133)
2(134 135)
2(136 137)
2(138 139)
2(140 141)
2(142 143)
2(144 145)
2(146 147)
2(148 149)
2(150 151)
2(152 153)
2(154 155)
2(11 156)
2(4 157)
2(158 159)
2(160 161)
2(162 163)
2(164 165)
2(22 166)
2(167 23)
2(168 169)
2(170 171)
2(172 173)
2(174 175)
2(176 177)
2(178 179)
2(180 181)
2(182 183)
2(184 5)
2(185 186)
2(187 188)
2(189 190)
2(191 192)
2(193 194)
2(195 196)
2(197 198)
2(199 200)
2(201 202)
2(203 204)
2(205 206)
2(207 208)
2(209 210)
2(211 212)
2(213 214)
2(215 216)
2(217 218)
2(219 220)
2(221 222)
2(223 224)
2(225 226)
2(227 228)
2(28 229)
2(230 29)
2(231 232)
2(233 234)
2(235 236)
2(237 238)
2(239 240)
2(241 242)
2(243 244)
2(245 246)
2(247 248)
2(249 250)
2(251 252)
2(7 8)
2(253 254)
2(255 256)
2(257 258)
2(259 260)
2(261 262)
2(263 264)
2(265 266)
2(267 268)
2(269 270)
2(271 272)
2(273 274)
2(275 276)
2(277 278)
2(279 280)
2(281 282)
2(283 284)
2(285 286)
2(287 288)
2(289 290)
2(13 291)
2(292 14)
2(293 294)
2(295 296)
2(297 298)
2(299 300)
2(301 302)
2(303 304)
2(305 306)
2(307 308)
2(309 310)
2(311 312)
2(313 314)
2(315 316)
2(317 318)
2(39 319)
2(320 321)
2(322 323)
2(324 325)
2(326 327)
2(1 328)
2(329 2)
2(330 331)
2(332 333)
2(334 335)
2(336 337)
2(338 339)
2(340 341)
2(342 343)
2(344 345)
2(346 347)
2(348 349)
2(350 351)
2(352 353)
2(354 355)
2(356 357)
2(358 359)
2(360 361)
2(362 363)
2(364 365)
2(366 367)
2(368 369)
2(370 371)
2(372 373)
2(19 374)
2(375 20)
2(376 377)
2(378 379)
2(380 381)
2(382 383)
)

// featurePointNormals

28
(
3(0 1 2)
3(0 1 5)
3(0 2 4)
3(3 4 5)
3(6 7 8)
3(6 7 10)
3(6 8 11)
3(9 10 11)
3(12 13 14)
3(12 13 17)
3(12 14 16)
3(15 16 17)
3(18 19 20)
3(18 19 23)
3(18 20 22)
3(21 22 23)
3(24 25 26)
3(24 25 29)
3(24 26 28)
3(27 28 29)
3(30 31 32)
3(30 32 34)
3(30 31 35)
3(33 34 35)
3(36 37 38)
3(36 38 39)
3(40 41 42)
3(40 41 43)
)

// featurePointEdges

28
(
3(0 183 1)
3(3 182 0)
3(2 91 1)
3(2 106 3)
3(4 142 5)
3(6 29 4)
3(7 90 5)
3(6 28 7)
3(8 163 9)
3(11 162 8)
3(10 63 9)
3(10 64 11)
3(12 207 13)
3(15 206 12)
3(14 96 13)
3(14 97 15)
3(16 41 17)
3(19 40 16)
3(18 129 17)
3(18 130 19)
3(20 24 21)
3(22 30 21)
3(23 26 20)
3(22 31 23)
3(24 62 25)
3(26 177 25)
3(27 30 28)
3(29 31 27)
)

// regionEdges
0()


// ************************************************************************* //
