/*--------------------------------*- C++ -*----------------------------------*\
| =========                 |                                                 |
| \\      /  F ield         | OpenFOAM: The Open Source CFD Toolbox           |
|  \\    /   O peration     | Version:  2212                                  |
|   \\  /    A nd           | Website:  www.openfoam.com                      |
|    \\/     M anipulation  |                                                 |
\*---------------------------------------------------------------------------*/
FoamFile
{
    version     2.0;
    format      ascii;
    arch        "LSB;label=32;scalar=64";
    class       featureEdgeMesh;
    location    "constant/triSurface";
    object      baffle2.eMesh;
}
// * * * * * * * * * * * * * * * * * * * * * * * * * * * * * * * * * * * * * //


// points:

198
(
(0.34 -0.2135 -0)
(0.34 -0.1235 -0)
(0.355 -0.2135 -0)
(0.355 -0.1235 -0)
(0.34 -0.0635 -0)
(0.34 0 0)
(0.355 -0.0635 -0)
(0.355 0 0)
(0.34 -0.6635 -0)
(0.34 -0.5735 -0)
(0.355 -0.6635 -0)
(0.355 -0.5735 -0)
(0.34 -0.5135 -0)
(0.34 -0.4235 -0)
(0.355 -0.5135 -0)
(0.355 -0.4235 -0)
(0.355 -0.2735 -0)
(0.355 -0.3635 -0)
(0.34 -0.2735 -0)
(0.34 -0.3635 -0)
(0.355 -0.787 -0)
(0.355 -0.787 0.065)
(0.34 -0.787 -0)
(0.34 -0.787 0.065)
(0.355 -0.7235 -0)
(0.34 -0.7235 -0)
(0.355 -0 0.065)
(0.34 -0 0.065)
(0.355 -0.403761 0.028191)
(0.355 -0.398709 0.029544)
(0.355 -0.670519 0.019284)
(0.355 -0.667519 0.015)
(0.355 -0.383239 0.028191)
(0.355 -0.3785 0.025981)
(0.355 -0.374216 0.022981)
(0.355 -0.370519 0.019284)
(0.355 -0.367519 0.015)
(0.355 -0.688291 0.029544)
(0.355 -0.683239 0.028191)
(0.355 -0.5585 0.025981)
(0.355 -0.553761 0.028191)
(0.355 -0.363956 0.005209)
(0.355 -0.273044 0.005209)
(0.355 -0.365309 0.010261)
(0.355 -0.271691 0.010261)
(0.355 -0.269481 0.015)
(0.355 -0.719481 0.015)
(0.355 -0.716481 0.019284)
(0.355 -0.721691 0.010261)
(0.355 -0.712784 0.022981)
(0.355 -0.7085 0.025981)
(0.355 -0.703761 0.028191)
(0.355 -0.698709 0.029544)
(0.355 -0.6935 0.03)
(0.355 -0.6785 0.025981)
(0.355 -0.674216 0.022981)
(0.355 -0.665309 0.010261)
(0.355 -0.663956 0.005209)
(0.355 -0.569481 0.015)
(0.355 -0.566481 0.019284)
(0.355 -0.571691 0.010261)
(0.355 -0.723044 0.005209)
(0.355 -0.573044 0.005209)
(0.355 -0.562784 0.022981)
(0.355 -0.548709 0.029544)
(0.355 -0.5435 0.03)
(0.355 -0.538291 0.029544)
(0.355 -0.533239 0.028191)
(0.355 -0.5285 0.025981)
(0.355 -0.524216 0.022981)
(0.355 -0.520519 0.019284)
(0.355 -0.423044 0.005209)
(0.355 -0.421691 0.010261)
(0.355 -0.419481 0.015)
(0.355 -0.416481 0.019284)
(0.355 -0.233239 0.028191)
(0.355 -0.2285 0.025981)
(0.355 -0.224216 0.022981)
(0.355 -0.220519 0.019284)
(0.355 -0.217519 0.015)
(0.355 -0.121691 0.010261)
(0.355 -0.119481 0.015)
(0.355 -0.116481 0.019284)
(0.355 -0.083239 0.028191)
(0.355 -0.0785 0.025981)
(0.355 -0.074216 0.022981)
(0.355 -0.070519 0.019284)
(0.355 -0.067519 0.015)
(0.355 -0.065309 0.010261)
(0.355 -0.063956 0.005209)
(0.355 -0.213956 0.005209)
(0.355 -0.517519 0.015)
(0.355 -0.3935 0.03)
(0.355 -0.38829 0.029544)
(0.355 -0.513956 0.005209)
(0.355 -0.515309 0.010261)
(0.355 -0.412784 0.022981)
(0.355 -0.4085 0.025981)
(0.355 -0.215309 0.010261)
(0.355 -0.123044 0.005209)
(0.355 -0.266481 0.019284)
(0.355 -0.262784 0.022981)
(0.355 -0.2585 0.025981)
(0.355 -0.098709 0.029544)
(0.355 -0.0935 0.03)
(0.355 -0.088291 0.029544)
(0.355 -0.238291 0.029544)
(0.355 -0.112784 0.022981)
(0.355 -0.2435 0.03)
(0.355 -0.1085 0.025981)
(0.355 -0.103761 0.028191)
(0.355 -0.248709 0.029544)
(0.355 -0.253761 0.028191)
(0.34 -0.217519 0.015)
(0.34 -0.220519 0.019284)
(0.34 -0.2585 0.025981)
(0.34 -0.262784 0.022981)
(0.34 -0.266481 0.019284)
(0.34 -0.269481 0.015)
(0.34 -0.119481 0.015)
(0.34 -0.121691 0.010261)
(0.34 -0.367519 0.015)
(0.34 -0.370519 0.019284)
(0.34 -0.712784 0.022981)
(0.34 -0.716481 0.019284)
(0.34 -0.273044 0.005209)
(0.34 -0.363956 0.005209)
(0.34 -0.271691 0.010261)
(0.34 -0.067519 0.015)
(0.34 -0.070519 0.019284)
(0.34 -0.065309 0.010261)
(0.34 -0.2285 0.025981)
(0.34 -0.233239 0.028191)
(0.34 -0.569481 0.015)
(0.34 -0.571691 0.010261)
(0.34 -0.566481 0.019284)
(0.34 -0.667519 0.015)
(0.34 -0.670519 0.019284)
(0.34 -0.674216 0.022981)
(0.34 -0.6785 0.025981)
(0.34 -0.063956 0.005209)
(0.34 -0.074216 0.022981)
(0.34 -0.0785 0.025981)
(0.34 -0.083239 0.028191)
(0.34 -0.116481 0.019284)
(0.34 -0.224216 0.022981)
(0.34 -0.374216 0.022981)
(0.34 -0.3785 0.025981)
(0.34 -0.383239 0.028191)
(0.34 -0.524216 0.022981)
(0.34 -0.5285 0.025981)
(0.34 -0.533239 0.028191)
(0.34 -0.538291 0.029544)
(0.34 -0.5435 0.03)
(0.34 -0.548709 0.029544)
(0.34 -0.553761 0.028191)
(0.34 -0.103761 0.028191)
(0.34 -0.1085 0.025981)
(0.34 -0.5585 0.025981)
(0.34 -0.562784 0.022981)
(0.34 -0.573044 0.005209)
(0.34 -0.663956 0.005209)
(0.34 -0.665309 0.010261)
(0.34 -0.683239 0.028191)
(0.34 -0.688291 0.029544)
(0.34 -0.6935 0.03)
(0.34 -0.698709 0.029544)
(0.34 -0.703761 0.028191)
(0.34 -0.7085 0.025981)
(0.34 -0.719481 0.015)
(0.34 -0.721691 0.010261)
(0.34 -0.723044 0.005209)
(0.34 -0.238291 0.029544)
(0.34 -0.2435 0.03)
(0.34 -0.112784 0.022981)
(0.34 -0.123044 0.005209)
(0.34 -0.213956 0.005209)
(0.34 -0.215309 0.010261)
(0.34 -0.398709 0.029544)
(0.34 -0.403761 0.028191)
(0.34 -0.4085 0.025981)
(0.34 -0.419481 0.015)
(0.34 -0.421691 0.010261)
(0.34 -0.423044 0.005209)
(0.34 -0.515309 0.010261)
(0.34 -0.517519 0.015)
(0.34 -0.365309 0.010261)
(0.34 -0.248709 0.029544)
(0.34 -0.253761 0.028191)
(0.34 -0.412784 0.022981)
(0.34 -0.416481 0.019284)
(0.34 -0.38829 0.029544)
(0.34 -0.3935 0.03)
(0.34 -0.520519 0.019284)
(0.34 -0.088291 0.029544)
(0.34 -0.0935 0.03)
(0.34 -0.098709 0.029544)
(0.34 -0.513956 0.005209)
)


// edges:

212
(
(0 1)
(2 0)
(3 2)
(1 3)
(4 5)
(6 4)
(5 7)
(7 6)
(8 9)
(10 8)
(11 10)
(9 11)
(12 13)
(14 12)
(15 14)
(13 15)
(16 17)
(18 16)
(19 18)
(17 19)
(22 20)
(20 21)
(21 23)
(23 22)
(24 20)
(25 24)
(22 25)
(27 26)
(26 7)
(5 27)
(21 26)
(27 23)
(28 29)
(30 31)
(32 33)
(33 34)
(34 35)
(35 36)
(37 38)
(39 40)
(41 17)
(16 42)
(43 41)
(42 44)
(36 43)
(44 45)
(46 47)
(48 46)
(47 49)
(49 50)
(50 51)
(51 52)
(52 53)
(53 37)
(38 54)
(54 55)
(55 30)
(31 56)
(56 57)
(58 59)
(60 58)
(61 48)
(24 61)
(57 10)
(11 62)
(62 60)
(59 63)
(63 39)
(40 64)
(64 65)
(65 66)
(66 67)
(67 68)
(68 69)
(69 70)
(71 72)
(72 73)
(73 74)
(75 76)
(76 77)
(77 78)
(78 79)
(80 81)
(81 82)
(83 84)
(84 85)
(85 86)
(86 87)
(87 88)
(88 89)
(89 6)
(90 2)
(70 91)
(29 92)
(92 93)
(93 32)
(94 14)
(15 71)
(95 94)
(91 95)
(74 96)
(96 97)
(97 28)
(79 98)
(98 90)
(99 80)
(3 99)
(45 100)
(100 101)
(101 102)
(103 104)
(104 105)
(105 83)
(106 75)
(82 107)
(108 106)
(107 109)
(109 110)
(110 103)
(111 108)
(112 111)
(102 112)
(113 114)
(115 116)
(116 117)
(117 118)
(119 120)
(121 122)
(123 124)
(125 18)
(19 126)
(127 125)
(118 127)
(128 129)
(130 128)
(131 132)
(133 134)
(135 133)
(136 137)
(137 138)
(138 139)
(140 130)
(4 140)
(129 141)
(141 142)
(142 143)
(144 119)
(114 145)
(145 131)
(122 146)
(146 147)
(147 148)
(149 150)
(150 151)
(151 152)
(152 153)
(153 154)
(154 155)
(156 157)
(155 158)
(158 159)
(159 135)
(160 9)
(8 161)
(134 160)
(161 162)
(162 136)
(139 163)
(163 164)
(164 165)
(165 166)
(166 167)
(167 168)
(168 123)
(124 169)
(169 170)
(170 171)
(171 25)
(132 172)
(172 173)
(174 144)
(157 174)
(175 1)
(0 176)
(120 175)
(176 177)
(177 113)
(178 179)
(179 180)
(181 182)
(182 183)
(184 185)
(126 186)
(187 188)
(188 115)
(180 189)
(189 190)
(190 181)
(148 191)
(191 192)
(192 178)
(193 149)
(185 193)
(143 194)
(194 195)
(195 196)
(183 13)
(12 197)
(197 184)
(186 121)
(173 187)
(196 156)
)

// * * * * * * * * * * * * * * * * * * * * * * * * * * * * * * * * * * * * * //


// ************************************************************************* //
