/*--------------------------------*- C++ -*----------------------------------*\
| =========                 |                                                 |
| \\      /  F ield         | OpenFOAM: The Open Source CFD Toolbox           |
|  \\    /   O peration     | Version:  2212                                  |
|   \\  /    A nd           | Website:  www.openfoam.com                      |
|    \\/     M anipulation  |                                                 |
\*---------------------------------------------------------------------------*/
FoamFile
{
    version     2.0;
    format      ascii;
    arch        "LSB;label=32;scalar=64";
    class       featureEdgeMesh;
    location    "constant/triSurface";
    object      wall1.eMesh;
}
// * * * * * * * * * * * * * * * * * * * * * * * * * * * * * * * * * * * * * //


// points:

84
(
(0.686 -0.787 0.272)
(0.686 -0.787 0)
(0.686 0 0.272)
(0.686 0 0)
(0.419 0 0.272)
(0.419 -0.787 0.272)
(0 -0.787 0.152)
(0 0 0.152)
(0 -0.787 0)
(0 0 0)
(0.216 -0.787 0.152)
(0.216 0 0.152)
(0.528074 -0.36439 0.272)
(0.5335 -0.360591 0.272)
(0.5525 -0.4315 0.272)
(0.545901 -0.430923 0.272)
(0.559099 -0.430923 0.272)
(0.565497 -0.429208 0.272)
(0.565497 -0.357792 0.272)
(0.5715 -0.360591 0.272)
(0.559099 -0.356077 0.272)
(0.585409 -0.3745 0.272)
(0.588208 -0.380503 0.272)
(0.539503 -0.357792 0.272)
(0.545901 -0.356077 0.272)
(0.5525 -0.3555 0.272)
(0.576926 -0.36439 0.272)
(0.58161 -0.369074 0.272)
(0.585409 -0.4125 0.272)
(0.58161 -0.417926 0.272)
(0.588208 -0.406497 0.272)
(0.576926 -0.42261 0.272)
(0.5715 -0.426409 0.272)
(0.539503 -0.429208 0.272)
(0.5335 -0.426409 0.272)
(0.528074 -0.42261 0.272)
(0.516792 -0.380503 0.272)
(0.519591 -0.3745 0.272)
(0.52339 -0.369074 0.272)
(0.589923 -0.386901 0.272)
(0.5905 -0.3935 0.272)
(0.589923 -0.400099 0.272)
(0.52339 -0.417926 0.272)
(0.519591 -0.4125 0.272)
(0.516792 -0.406497 0.272)
(0.515077 -0.400099 0.272)
(0.5145 -0.3935 0.272)
(0.515077 -0.386901 0.272)
(0.565497 -0.357792 0)
(0.559099 -0.356077 0)
(0.5525 -0.3555 0)
(0.545901 -0.356077 0)
(0.5525 -0.4315 0)
(0.559099 -0.430923 0)
(0.539503 -0.357792 0)
(0.5335 -0.360591 0)
(0.528074 -0.36439 0)
(0.588208 -0.380503 0)
(0.585409 -0.3745 0)
(0.58161 -0.369074 0)
(0.576926 -0.36439 0)
(0.5715 -0.360591 0)
(0.52339 -0.369074 0)
(0.519591 -0.3745 0)
(0.516792 -0.380503 0)
(0.565497 -0.429208 0)
(0.5715 -0.426409 0)
(0.576926 -0.42261 0)
(0.58161 -0.417926 0)
(0.585409 -0.4125 0)
(0.588208 -0.406497 0)
(0.516792 -0.406497 0)
(0.519591 -0.4125 0)
(0.52339 -0.417926 0)
(0.528074 -0.42261 0)
(0.5335 -0.426409 0)
(0.539503 -0.429208 0)
(0.545901 -0.430923 0)
(0.515077 -0.386901 0)
(0.5145 -0.3935 0)
(0.515077 -0.400099 0)
(0.589923 -0.400099 0)
(0.5905 -0.3935 0)
(0.589923 -0.386901 0)
)


// edges:

90
(
(2 0)
(0 1)
(1 3)
(3 2)
(12 13)
(14 15)
(16 14)
(5 0)
(17 16)
(18 19)
(20 18)
(21 22)
(13 23)
(23 24)
(2 4)
(24 25)
(25 20)
(19 26)
(26 27)
(27 21)
(28 29)
(30 28)
(29 31)
(31 32)
(32 17)
(15 33)
(33 34)
(34 35)
(36 37)
(37 38)
(38 12)
(22 39)
(39 40)
(40 41)
(41 30)
(35 42)
(42 43)
(43 44)
(44 45)
(45 46)
(4 5)
(46 47)
(47 36)
(10 5)
(4 11)
(7 6)
(6 10)
(11 7)
(9 8)
(8 6)
(7 9)
(48 49)
(49 50)
(50 51)
(9 3)
(52 53)
(51 54)
(54 55)
(55 56)
(57 58)
(58 59)
(59 60)
(60 61)
(61 48)
(56 62)
(62 63)
(63 64)
(53 65)
(65 66)
(66 67)
(67 68)
(68 69)
(69 70)
(71 72)
(72 73)
(73 74)
(74 75)
(75 76)
(1 8)
(76 77)
(77 52)
(64 78)
(78 79)
(79 80)
(80 71)
(70 81)
(81 82)
(82 83)
(83 57)
(11 10)
)

// * * * * * * * * * * * * * * * * * * * * * * * * * * * * * * * * * * * * * //


// ************************************************************************* //
