/*--------------------------------*- C++ -*----------------------------------*\
| =========                 |                                                 |
| \\      /  F ield         | OpenFOAM: The Open Source CFD Toolbox           |
|  \\    /   O peration     | Version:  2212                                  |
|   \\  /    A nd           | Website:  www.openfoam.com                      |
|    \\/     M anipulation  |                                                 |
\*---------------------------------------------------------------------------*/
FoamFile
{
    version     2.0;
    format      ascii;
    arch        "LSB;label=32;scalar=64";
    class       extendedFeatureEdgeMesh;
    location    "constant/extendedFeatureEdgeMesh";
    object      wall1.extendedFeatureEdgeMesh;
}
// * * * * * * * * * * * * * * * * * * * * * * * * * * * * * * * * * * * * * //

// points

84
(
(0.686 -0.787 0.272)
(0.686 -0.787 -0)
(0.686 -0 0.272)
(0.686 0 0)
(0.419 -0 0.272)
(0.419 -0.787 0.272)
(0 -0.787 0.152)
(0 -0 0.152)
(0 -0.787 -0)
(0 0 0)
(0.216 -0.787 0.152)
(0.216 -0 0.152)
(0.528074 -0.36439 0.272)
(0.5335 -0.360591 0.272)
(0.5525 -0.4315 0.272)
(0.545901 -0.430923 0.272)
(0.559099 -0.430923 0.272)
(0.565497 -0.429208 0.272)
(0.565497 -0.357792 0.272)
(0.5715 -0.360591 0.272)
(0.559099 -0.356077 0.272)
(0.585409 -0.3745 0.272)
(0.588208 -0.380503 0.272)
(0.539503 -0.357792 0.272)
(0.545901 -0.356077 0.272)
(0.5525 -0.3555 0.272)
(0.576926 -0.36439 0.272)
(0.58161 -0.369074 0.272)
(0.585409 -0.4125 0.272)
(0.58161 -0.417926 0.272)
(0.588208 -0.406497 0.272)
(0.576926 -0.42261 0.272)
(0.5715 -0.426409 0.272)
(0.539503 -0.429208 0.272)
(0.5335 -0.426409 0.272)
(0.528074 -0.42261 0.272)
(0.516792 -0.380503 0.272)
(0.519591 -0.3745 0.272)
(0.52339 -0.369074 0.272)
(0.589923 -0.386901 0.272)
(0.5905 -0.3935 0.272)
(0.589923 -0.400099 0.272)
(0.52339 -0.417926 0.272)
(0.519591 -0.4125 0.272)
(0.516792 -0.406497 0.272)
(0.515077 -0.400099 0.272)
(0.5145 -0.3935 0.272)
(0.515077 -0.386901 0.272)
(0.565497 -0.357792 -0)
(0.559099 -0.356077 -0)
(0.5525 -0.3555 -0)
(0.545901 -0.356077 -0)
(0.5525 -0.4315 -0)
(0.559099 -0.430923 -0)
(0.539503 -0.357792 -0)
(0.5335 -0.360591 -0)
(0.528074 -0.36439 -0)
(0.588208 -0.380503 -0)
(0.585409 -0.3745 -0)
(0.58161 -0.369074 -0)
(0.576926 -0.36439 -0)
(0.5715 -0.360591 -0)
(0.52339 -0.369074 -0)
(0.519591 -0.3745 -0)
(0.516792 -0.380503 -0)
(0.565497 -0.429208 -0)
(0.5715 -0.426409 -0)
(0.576926 -0.42261 -0)
(0.58161 -0.417926 -0)
(0.585409 -0.4125 -0)
(0.588208 -0.406497 -0)
(0.516792 -0.406497 -0)
(0.519591 -0.4125 -0)
(0.52339 -0.417926 -0)
(0.528074 -0.42261 -0)
(0.5335 -0.426409 -0)
(0.539503 -0.429208 -0)
(0.545901 -0.430923 -0)
(0.515077 -0.386901 -0)
(0.5145 -0.3935 -0)
(0.515077 -0.400099 -0)
(0.589923 -0.400099 -0)
(0.5905 -0.3935 -0)
(0.589923 -0.386901 -0)
)

// edges

90
(
(2 0)
(0 1)
(1 3)
(3 2)
(12 13)
(14 15)
(16 14)
(5 0)
(17 16)
(18 19)
(20 18)
(21 22)
(13 23)
(23 24)
(2 4)
(24 25)
(25 20)
(19 26)
(26 27)
(27 21)
(28 29)
(30 28)
(29 31)
(31 32)
(32 17)
(15 33)
(33 34)
(34 35)
(36 37)
(37 38)
(38 12)
(22 39)
(39 40)
(40 41)
(41 30)
(35 42)
(42 43)
(43 44)
(44 45)
(45 46)
(4 5)
(46 47)
(47 36)
(10 5)
(4 11)
(7 6)
(6 10)
(11 7)
(9 8)
(8 6)
(7 9)
(48 49)
(49 50)
(50 51)
(9 3)
(52 53)
(51 54)
(54 55)
(55 56)
(57 58)
(58 59)
(59 60)
(60 61)
(61 48)
(56 62)
(62 63)
(63 64)
(53 65)
(65 66)
(66 67)
(67 68)
(68 69)
(69 70)
(71 72)
(72 73)
(73 74)
(74 75)
(75 76)
(1 8)
(76 77)
(77 52)
(64 78)
(78 79)
(79 80)
(80 71)
(70 81)
(81 82)
(82 83)
(83 57)
(11 10)
)

// concaveStart mixedStart nonFeatureStart
10 10 12
// internalStart flatStart openStart multipleStart
89 90 90 90
// normals

168
(
(1 -0 0)
(0 0 1)
(0 -1 0)
(1 0 0)
(0 0 -1)
(-0 1 0)
(0 -0 1)
(0.573543 -0.819175 0)
(0 0 1)
(0.087101 0.996199 -0)
(-0 0 1)
(-0.087101 0.996199 0)
(0 0 1)
(-0 0 1)
(-0.258914 0.9659 0)
(0 -0 1)
(-0.422587 -0.906322 0)
(0 -0 1)
(-0.258914 -0.9659 0)
(0 0 1)
(-0.90632 -0.422593 0)
(0 -0 1)
(0.422591 -0.906321 0)
(0 0 1)
(0.258912 -0.965901 0)
(-0 0 1)
(-0 1 0)
(0 0 1)
(0.087101 -0.996199 0)
(0 0 1)
(-0.087101 -0.996199 0)
(-0 0 1)
(-0.573543 -0.819175 0)
(0 0 1)
(-0.707105 -0.707109 0)
(0 0 1)
(-0.819179 -0.573538 0)
(-0 0 1)
(-0.819179 0.573538 0)
(-0 0 1)
(-0.90632 0.422593 0)
(0 0 1)
(-0.707105 0.707109 0)
(0 0 1)
(-0.573543 0.819175 0)
(0 0 1)
(-0.422587 0.906322 0)
(0 0 1)
(0.258912 0.965901 -0)
(0 0 1)
(0.422591 0.906321 -0)
(0 0 1)
(0.573543 0.819175 -0)
(0 -0 1)
(0.906323 -0.422585 0)
(0 0 1)
(0.819175 -0.573544 0)
(0 0 1)
(0.707105 -0.707109 0)
(-0 0 1)
(-0.965901 -0.258913 0)
(0 0 1)
(-0.996199 -0.087101 0)
(0 0 1)
(-0.996199 0.087101 0)
(0 0 1)
(-0.965901 0.258913 0)
(0 0 1)
(0.707105 0.707109 -0)
(0 0 1)
(0.819175 0.573544 -0)
(0 0 1)
(0.906323 0.422585 -0)
(0 0 1)
(0.965901 0.258913 -0)
(0 0 1)
(0.996199 0.087101 -0)
(0 0 1)
(-0.508872 0 0.860842)
(0 0 1)
(0.996199 -0.087101 0)
(0 0 1)
(0.965901 -0.258913 0)
(-0.508872 0 0.860842)
(0 -1 0)
(0 0 1)
(-1 0 0)
(0 -1 0)
(-0 0 1)
(0 1 0)
(-1 0 0)
(0 0 -1)
(0 0 -1)
(-0.258914 -0.9659 0)
(0 0 -1)
(-0.087101 -0.996199 0)
(0 0 -1)
(0.087101 -0.996199 0)
(0 0 -1)
(0 1 0)
(0 0 -1)
(-0.087101 0.996199 0)
(-0 0 -1)
(0.258912 -0.965901 0)
(0 0 -1)
(0.422591 -0.906321 0)
(0 0 -1)
(0.573543 -0.819175 0)
(0 0 -1)
(-0.90632 -0.422593 0)
(0 0 -1)
(-0.819179 -0.573538 0)
(0 0 -1)
(-0.707105 -0.707109 0)
(0 0 -1)
(-0.573543 -0.819175 0)
(0 0 -1)
(-0.422587 -0.906322 0)
(-0 0 -1)
(0.707105 -0.707109 0)
(0 0 -1)
(0.819175 -0.573544 0)
(0 0 -1)
(0.906323 -0.422585 0)
(0 0 -1)
(-0.258914 0.9659 0)
(0 0 -1)
(-0.422587 0.906322 0)
(0 0 -1)
(-0.573543 0.819175 0)
(0 0 -1)
(-0.707105 0.707109 0)
(0 0 -1)
(-0.819179 0.573538 0)
(0 0 -1)
(-0.90632 0.422593 0)
(0 -0 -1)
(0.906323 0.422585 -0)
(0 0 -1)
(0.819175 0.573544 -0)
(0 0 -1)
(0.707105 0.707109 -0)
(0 -0 -1)
(0.573543 0.819175 -0)
(0 0 -1)
(0.422591 0.906321 -0)
(0 0 -1)
(0 -1 -0)
(0 0 -1)
(0.258912 0.965901 -0)
(0 0 -1)
(0.087101 0.996199 -0)
(-0 0 -1)
(0.965901 -0.258913 0)
(0 0 -1)
(0.996199 -0.087101 0)
(0 0 -1)
(0.996199 0.087101 -0)
(0 0 -1)
(0.965901 0.258913 -0)
(0 0 -1)
(-0.965901 0.258913 0)
(0 0 -1)
(-0.996199 0.087101 0)
(0 0 -1)
(-0.996199 -0.087101 0)
(0 0 -1)
(-0.965901 -0.258913 0)
)

// normal volume types

168
(
0
0
0
0
0
0
0
0
0
0
0
0
0
0
0
0
0
0
0
0
0
0
0
0
0
0
0
0
0
0
0
0
0
0
0
0
0
0
0
0
0
0
0
0
0
0
0
0
0
0
0
0
0
0
0
0
0
0
0
0
0
0
0
0
0
0
0
0
0
0
0
0
0
0
0
0
0
0
0
0
0
0
0
0
0
0
0
0
0
0
0
0
0
0
0
0
0
0
0
0
0
0
0
0
0
0
0
0
0
0
0
0
0
0
0
0
0
0
0
0
0
0
0
0
0
0
0
0
0
0
0
0
0
0
0
0
0
0
0
0
0
0
0
0
0
0
0
0
0
0
0
0
0
0
0
0
0
0
0
0
0
0
0
0
0
0
0
0
)

// normalDirections

90
(
2(1 -1)
2(1 -1)
2(1 -1)
2(1 -1)
2(1 -1)
2(1 -1)
2(1 -1)
2(1 -1)
2(1 -1)
2(1 -1)
2(1 -1)
2(1 -1)
2(1 -1)
2(1 -1)
2(1 -1)
2(1 -1)
2(1 -1)
2(1 -1)
2(1 -1)
2(1 -1)
2(1 -1)
2(1 -1)
2(1 -1)
2(1 -1)
2(1 -1)
2(1 -1)
2(1 -1)
2(1 -1)
2(1 -1)
2(1 -1)
2(1 -1)
2(1 -1)
2(1 -1)
2(1 -1)
2(1 -1)
2(1 -1)
2(1 -1)
2(1 -1)
2(1 -1)
2(1 -1)
2(1 -1)
2(1 -1)
2(1 -1)
2(1 -1)
2(1 -1)
2(1 -1)
2(1 -1)
2(1 -1)
2(1 -1)
2(1 -1)
2(1 -1)
2(1 -1)
2(1 -1)
2(1 -1)
2(1 -1)
2(1 -1)
2(1 -1)
2(1 -1)
2(1 -1)
2(1 -1)
2(1 -1)
2(1 -1)
2(1 -1)
2(1 -1)
2(1 -1)
2(1 -1)
2(1 -1)
2(1 -1)
2(1 -1)
2(1 -1)
2(1 -1)
2(1 -1)
2(1 -1)
2(1 -1)
2(1 -1)
2(1 -1)
2(1 -1)
2(1 -1)
2(1 -1)
2(1 -1)
2(1 -1)
2(1 -1)
2(1 -1)
2(1 -1)
2(1 -1)
2(1 -1)
2(1 -1)
2(1 -1)
2(1 -1)
2(1 -1)
)

// edgeNormals

90
(
2(0 1)
2(0 2)
2(3 4)
2(3 5)
2(6 7)
2(8 9)
2(10 11)
2(12 2)
2(13 14)
2(15 16)
2(17 18)
2(19 20)
2(21 22)
2(23 24)
2(25 26)
2(27 28)
2(29 30)
2(31 32)
2(33 34)
2(35 36)
2(37 38)
2(39 40)
2(41 42)
2(43 44)
2(45 46)
2(47 48)
2(49 50)
2(51 52)
2(53 54)
2(55 56)
2(57 58)
2(59 60)
2(61 62)
2(63 64)
2(65 66)
2(67 68)
2(69 70)
2(71 72)
2(73 74)
2(75 76)
2(77 78)
2(79 80)
2(81 82)
2(83 84)
2(78 26)
2(85 86)
2(85 87)
2(88 89)
2(90 91)
2(90 87)
2(86 89)
2(92 93)
2(94 95)
2(96 97)
2(98 99)
2(100 101)
2(102 103)
2(104 105)
2(106 107)
2(108 109)
2(110 111)
2(112 113)
2(114 115)
2(116 117)
2(118 119)
2(120 121)
2(122 123)
2(124 125)
2(126 127)
2(128 129)
2(130 131)
2(132 133)
2(134 135)
2(136 137)
2(138 139)
2(140 141)
2(142 143)
2(144 145)
2(146 147)
2(148 149)
2(150 151)
2(152 153)
2(154 155)
2(156 157)
2(158 159)
2(160 161)
2(162 163)
2(164 165)
2(166 167)
2(83 88)
)

// featurePointNormals

12
(
3(0 1 2)
3(0 2 4)
3(0 1 5)
3(3 4 5)
3(25 26 78)
3(12 2 78)
3(85 86 87)
3(85 86 89)
3(90 91 87)
3(90 91 89)
3(83 84 85)
3(78 26 88)
)

// featurePointEdges

12
(
3(0 7 1)
3(2 78 1)
3(3 14 0)
3(2 54 3)
3(14 44 40)
3(7 43 40)
3(45 49 46)
3(47 50 45)
3(48 78 49)
3(50 54 48)
3(89 46 43)
3(44 47 89)
)

// regionEdges
0()


// ************************************************************************* //
